/*--------------------------------*- C++ -*----------------------------------*\
| =========                 |                                                 |
| \\      /  F ield         | OpenFOAM: The Open Source CFD Toolbox           |
|  \\    /   O peration     | Version:  v2012                                 |
|   \\  /    A nd           | Website:  www.openfoam.com                      |
|    \\/     M anipulation  |                                                 |
\*---------------------------------------------------------------------------*/
FoamFile
{
    version     2.0;
    format      ascii;
    class       polyBoundaryMesh;
    location    "constant/polyMesh";
    object      boundary;
}
// * * * * * * * * * * * * * * * * * * * * * * * * * * * * * * * * * * * * * //

8
(
    back
    {
        type            wall;
        inGroups        2(stationaryWalls wall);
        nFaces          167;
        startFace       306;
    }
    sides
    {
        type            wall;
        inGroups        2(stationaryWalls wall);
        nFaces          12;
        startFace       473;
    }
    bottom
    {
        type            wall;
        inGroups        2(stationaryWalls wall);
        nFaces          0;
        startFace       485;
    }
    front
    {
        type            wall;
        inGroups        2(stationaryWalls wall);
        nFaces          167;
        startFace       485;
    }
    atmosphere
    {
        type            patch;
        nFaces          16;
        startFace       652;
    }
    floatingObject
    {
        type            wall;
        inGroups        1(wall);
        nFaces          0;
        startFace       668;
    }
    procBoundary1to0
    {
        type            processor;
        inGroups        1(processor);
        nFaces          10;
        startFace       668;
        matchTolerance  0.0001;
        transform       unknown;
        myProcNo        1;
        neighbProcNo    0;
    }
    procBoundary1to2
    {
        type            processor;
        inGroups        1(processor);
        nFaces          18;
        startFace       678;
        matchTolerance  0.0001;
        transform       unknown;
        myProcNo        1;
        neighbProcNo    2;
    }
)

// ************************************************************************* //
