/*--------------------------------*- C++ -*----------------------------------*\
| =========                 |                                                 |
| \\      /  F ield         | OpenFOAM: The Open Source CFD Toolbox           |
|  \\    /   O peration     | Version:  v2012                                 |
|   \\  /    A nd           | Website:  www.openfoam.com                      |
|    \\/     M anipulation  |                                                 |
\*---------------------------------------------------------------------------*/
FoamFile
{
    version     2.0;
    format      ascii;
    class       polyBoundaryMesh;
    location    "constant/polyMesh";
    object      boundary;
}
// * * * * * * * * * * * * * * * * * * * * * * * * * * * * * * * * * * * * * //

10
(
    back
    {
        type            wall;
        inGroups        2(stationaryWalls wall);
        nFaces          166;
        startFace       300;
    }
    sides
    {
        type            wall;
        inGroups        2(stationaryWalls wall);
        nFaces          0;
        startFace       466;
    }
    bottom
    {
        type            wall;
        inGroups        2(stationaryWalls wall);
        nFaces          12;
        startFace       466;
    }
    front
    {
        type            wall;
        inGroups        2(stationaryWalls wall);
        nFaces          166;
        startFace       478;
    }
    atmosphere
    {
        type            patch;
        nFaces          8;
        startFace       644;
    }
    floatingObject
    {
        type            wall;
        inGroups        1(wall);
        nFaces          0;
        startFace       652;
    }
    procBoundary9to6
    {
        type            processor;
        inGroups        1(processor);
        nFaces          4;
        startFace       652;
        matchTolerance  0.0001;
        transform       unknown;
        myProcNo        9;
        neighbProcNo    6;
    }
    procBoundary9to7
    {
        type            processor;
        inGroups        1(processor);
        nFaces          16;
        startFace       656;
        matchTolerance  0.0001;
        transform       unknown;
        myProcNo        9;
        neighbProcNo    7;
    }
    procBoundary9to10
    {
        type            processor;
        inGroups        1(processor);
        nFaces          15;
        startFace       672;
        matchTolerance  0.0001;
        transform       unknown;
        myProcNo        9;
        neighbProcNo    10;
    }
    procBoundary9to11
    {
        type            processor;
        inGroups        1(processor);
        nFaces          9;
        startFace       687;
        matchTolerance  0.0001;
        transform       unknown;
        myProcNo        9;
        neighbProcNo    11;
    }
)

// ************************************************************************* //
