/*--------------------------------*- C++ -*----------------------------------*\
| =========                 |                                                 |
| \\      /  F ield         | OpenFOAM: The Open Source CFD Toolbox           |
|  \\    /   O peration     | Version:  v2012                                 |
|   \\  /    A nd           | Website:  www.openfoam.com                      |
|    \\/     M anipulation  |                                                 |
\*---------------------------------------------------------------------------*/
FoamFile
{
    version     2.0;
    format      ascii;
    class       polyBoundaryMesh;
    location    "constant/polyMesh";
    object      boundary;
}
// * * * * * * * * * * * * * * * * * * * * * * * * * * * * * * * * * * * * * //

9
(
    back
    {
        type            wall;
        inGroups        2(stationaryWalls wall);
        nFaces          164;
        startFace       300;
    }
    sides
    {
        type            wall;
        inGroups        2(stationaryWalls wall);
        nFaces          0;
        startFace       464;
    }
    bottom
    {
        type            wall;
        inGroups        2(stationaryWalls wall);
        nFaces          11;
        startFace       464;
    }
    front
    {
        type            wall;
        inGroups        2(stationaryWalls wall);
        nFaces          164;
        startFace       475;
    }
    atmosphere
    {
        type            patch;
        nFaces          0;
        startFace       639;
    }
    floatingObject
    {
        type            wall;
        inGroups        1(wall);
        nFaces          4;
        startFace       639;
    }
    procBoundary8to3
    {
        type            processor;
        inGroups        1(processor);
        nFaces          8;
        startFace       643;
        matchTolerance  0.0001;
        transform       unknown;
        myProcNo        8;
        neighbProcNo    3;
    }
    procBoundary8to6
    {
        type            processor;
        inGroups        1(processor);
        nFaces          16;
        startFace       651;
        matchTolerance  0.0001;
        transform       unknown;
        myProcNo        8;
        neighbProcNo    6;
    }
    procBoundary8to7
    {
        type            processor;
        inGroups        1(processor);
        nFaces          17;
        startFace       667;
        matchTolerance  0.0001;
        transform       unknown;
        myProcNo        8;
        neighbProcNo    7;
    }
)

// ************************************************************************* //
