/*--------------------------------*- C++ -*----------------------------------*\
| =========                 |                                                 |
| \\      /  F ield         | OpenFOAM: The Open Source CFD Toolbox           |
|  \\    /   O peration     | Version:  v2012                                 |
|   \\  /    A nd           | Website:  www.openfoam.com                      |
|    \\/     M anipulation  |                                                 |
\*---------------------------------------------------------------------------*/
FoamFile
{
    version     2.0;
    format      ascii;
    class       polyBoundaryMesh;
    location    "constant/polyMesh";
    object      boundary;
}
// * * * * * * * * * * * * * * * * * * * * * * * * * * * * * * * * * * * * * //

10
(
    back
    {
        type            wall;
        inGroups        2(stationaryWalls wall);
        nFaces          164;
        startFace       296;
    }
    sides
    {
        type            wall;
        inGroups        2(stationaryWalls wall);
        nFaces          0;
        startFace       460;
    }
    bottom
    {
        type            wall;
        inGroups        2(stationaryWalls wall);
        nFaces          10;
        startFace       460;
    }
    front
    {
        type            wall;
        inGroups        2(stationaryWalls wall);
        nFaces          164;
        startFace       470;
    }
    atmosphere
    {
        type            patch;
        nFaces          7;
        startFace       634;
    }
    floatingObject
    {
        type            wall;
        inGroups        1(wall);
        nFaces          8;
        startFace       641;
    }
    procBoundary3to4
    {
        type            processor;
        inGroups        1(processor);
        nFaces          13;
        startFace       649;
        matchTolerance  0.0001;
        transform       unknown;
        myProcNo        3;
        neighbProcNo    4;
    }
    procBoundary3to5
    {
        type            processor;
        inGroups        1(processor);
        nFaces          10;
        startFace       662;
        matchTolerance  0.0001;
        transform       unknown;
        myProcNo        3;
        neighbProcNo    5;
    }
    procBoundary3to6
    {
        type            processor;
        inGroups        1(processor);
        nFaces          8;
        startFace       672;
        matchTolerance  0.0001;
        transform       unknown;
        myProcNo        3;
        neighbProcNo    6;
    }
    procBoundary3to8
    {
        type            processor;
        inGroups        1(processor);
        nFaces          8;
        startFace       680;
        matchTolerance  0.0001;
        transform       unknown;
        myProcNo        3;
        neighbProcNo    8;
    }
)

// ************************************************************************* //
