/*--------------------------------*- C++ -*----------------------------------*\
| =========                 |                                                 |
| \\      /  F ield         | OpenFOAM: The Open Source CFD Toolbox           |
|  \\    /   O peration     | Version:  v2012                                 |
|   \\  /    A nd           | Website:  www.openfoam.com                      |
|    \\/     M anipulation  |                                                 |
\*---------------------------------------------------------------------------*/
FoamFile
{
    version     2.0;
    format      ascii;
    class       polyBoundaryMesh;
    location    "constant/polyMesh";
    object      boundary;
}
// * * * * * * * * * * * * * * * * * * * * * * * * * * * * * * * * * * * * * //

6
(
    back
    {
        type            empty;
        inGroups        1(empty);
        nFaces          14112;
        startFace       27948;
    }
    sides
    {
        type            wall;
        inGroups        2(stationaryWalls wall);
        nFaces          240;
        startFace       42060;
    }
    bottom
    {
        type            wall;
        inGroups        2(stationaryWalls wall);
        nFaces          120;
        startFace       42300;
    }
    front
    {
        type            empty;
        inGroups        1(empty);
        nFaces          14112;
        startFace       42420;
    }
    atmosphere
    {
        type            patch;
        nFaces          120;
        startFace       56532;
    }
    floatingObject
    {
        type            wall;
        inGroups        1(wall);
        nFaces          72;
        startFace       56652;
    }
)

// ************************************************************************* //
