/*--------------------------------*- C++ -*----------------------------------*\
| =========                 |                                                 |
| \\      /  F ield         | OpenFOAM: The Open Source CFD Toolbox           |
|  \\    /   O peration     | Version:  v2012                                 |
|   \\  /    A nd           | Website:  www.openfoam.com                      |
|    \\/     M anipulation  |                                                 |
\*---------------------------------------------------------------------------*/
FoamFile
{
    version     2.0;
    format      ascii;
    class       polyBoundaryMesh;
    location    "constant/polyMesh";
    object      boundary;
}
// * * * * * * * * * * * * * * * * * * * * * * * * * * * * * * * * * * * * * //

6
(
    back
    {
        type            empty;
        inGroups        1(empty);
        nFaces          15872;
        startFace       31440;
    }
    sides
    {
        type            wall;
        inGroups        2(stationaryWalls wall);
        nFaces          160;
        startFace       47312;
    }
    bottom
    {
        type            wall;
        inGroups        2(stationaryWalls wall);
        nFaces          200;
        startFace       47472;
    }
    front
    {
        type            empty;
        inGroups        1(empty);
        nFaces          15872;
        startFace       47672;
    }
    atmosphere
    {
        type            patch;
        nFaces          200;
        startFace       63544;
    }
    floatingObject
    {
        type            wall;
        inGroups        1(wall);
        nFaces          48;
        startFace       63744;
    }
)

// ************************************************************************* //
