/*--------------------------------*- C++ -*----------------------------------*\
| =========                 |                                                 |
| \\      /  F ield         | OpenFOAM: The Open Source CFD Toolbox           |
|  \\    /   O peration     | Version:  v2012                                 |
|   \\  /    A nd           | Website:  www.openfoam.com                      |
|    \\/     M anipulation  |                                                 |
\*---------------------------------------------------------------------------*/
FoamFile
{
    version     2.0;
    format      ascii;
    class       polyBoundaryMesh;
    location    "constant/polyMesh";
    object      boundary;
}
// * * * * * * * * * * * * * * * * * * * * * * * * * * * * * * * * * * * * * //

10
(
    back
    {
        type            wall;
        inGroups        2(stationaryWalls wall);
        nFaces          164;
        startFace       293;
    }
    sides
    {
        type            wall;
        inGroups        2(stationaryWalls wall);
        nFaces          0;
        startFace       457;
    }
    bottom
    {
        type            wall;
        inGroups        2(stationaryWalls wall);
        nFaces          0;
        startFace       457;
    }
    front
    {
        type            wall;
        inGroups        2(stationaryWalls wall);
        nFaces          164;
        startFace       457;
    }
    atmosphere
    {
        type            patch;
        nFaces          27;
        startFace       621;
    }
    floatingObject
    {
        type            wall;
        inGroups        1(wall);
        nFaces          4;
        startFace       648;
    }
    procBoundary6to3
    {
        type            processor;
        inGroups        1(processor);
        nFaces          8;
        startFace       652;
        matchTolerance  0.0001;
        transform       unknown;
        myProcNo        6;
        neighbProcNo    3;
    }
    procBoundary6to7
    {
        type            processor;
        inGroups        1(processor);
        nFaces          11;
        startFace       660;
        matchTolerance  0.0001;
        transform       unknown;
        myProcNo        6;
        neighbProcNo    7;
    }
    procBoundary6to8
    {
        type            processor;
        inGroups        1(processor);
        nFaces          16;
        startFace       671;
        matchTolerance  0.0001;
        transform       unknown;
        myProcNo        6;
        neighbProcNo    8;
    }
    procBoundary6to9
    {
        type            processor;
        inGroups        1(processor);
        nFaces          4;
        startFace       687;
        matchTolerance  0.0001;
        transform       unknown;
        myProcNo        6;
        neighbProcNo    9;
    }
)

// ************************************************************************* //
