/*--------------------------------*- C++ -*----------------------------------*\
| =========                 |                                                 |
| \\      /  F ield         | OpenFOAM: The Open Source CFD Toolbox           |
|  \\    /   O peration     | Version:  v2012                                 |
|   \\  /    A nd           | Website:  www.openfoam.com                      |
|    \\/     M anipulation  |                                                 |
\*---------------------------------------------------------------------------*/
FoamFile
{
    version     2.0;
    format      ascii;
    class       polyBoundaryMesh;
    location    "constant/polyMesh";
    object      boundary;
}
// * * * * * * * * * * * * * * * * * * * * * * * * * * * * * * * * * * * * * //

8
(
    back
    {
        type            wall;
        inGroups        2(stationaryWalls wall);
        nFaces          167;
        startFace       304;
    }
    sides
    {
        type            wall;
        inGroups        2(stationaryWalls wall);
        nFaces          11;
        startFace       471;
    }
    bottom
    {
        type            wall;
        inGroups        2(stationaryWalls wall);
        nFaces          0;
        startFace       482;
    }
    front
    {
        type            wall;
        inGroups        2(stationaryWalls wall);
        nFaces          167;
        startFace       482;
    }
    atmosphere
    {
        type            patch;
        nFaces          17;
        startFace       649;
    }
    floatingObject
    {
        type            wall;
        inGroups        1(wall);
        nFaces          0;
        startFace       666;
    }
    procBoundary11to9
    {
        type            processor;
        inGroups        1(processor);
        nFaces          9;
        startFace       666;
        matchTolerance  0.0001;
        transform       unknown;
        myProcNo        11;
        neighbProcNo    9;
    }
    procBoundary11to10
    {
        type            processor;
        inGroups        1(processor);
        nFaces          23;
        startFace       675;
        matchTolerance  0.0001;
        transform       unknown;
        myProcNo        11;
        neighbProcNo    10;
    }
)

// ************************************************************************* //
